/*--------------------------------*- C++ -*----------------------------------*\
| =========                 |                                                 |
| \\      /  F ield         | OpenFOAM: The Open Source CFD Toolbox           |
|  \\    /   O peration     | Version:  3.0.1                                 |
|   \\  /    A nd           | Web:      www.OpenFOAM.org                      |
|    \\/     M anipulation  |                                                 |
\*---------------------------------------------------------------------------*/
FoamFile
{
    version     2.0;
    format      ascii;
    class       dictionary;
    object      blockMeshDict;
}
// * * * * * * * * * * * * * * * * * * * * * * * * * * * * * * * * * * * * * //

convertToMeters 1;

vertices
(
    (0 0 0) // 0
    (15 0 0) // 1
    (0 0.27 0) // 2
    (15 0.27 0) // 3
    (0 0.3 0) // 4
    (15 0.3 0) // 5
    (0 1.5 0) // 6
    (15 1.5 0) // 7
);

blocks
(
    hex (0 1 3 2 6 7 9 8) (300 6 1) simpleGrading (1 1 1)
    hex (2 3 5 4 8 9 11 10) (300 24 1) simpleGrading (1 1 1)
);

edges
(
);

boundary
(
    inlet
    {
        type patch;
        faces
        (
            (6 0 2 8)
        );
    }

    leftWall
    {
        type wall;
        faces
        (
            (8 2 4 10)
        );
    }

    rightWall
    {
	type wall;
	faces
	(
	    (3 9 11 5)
	);
    }

    outlet
    {
        type patch;
	faces
	(
	    (1 7 9 3)
	);
    }

    lowerWall
    {
        type wall;
        faces
        (
            (0 1 7 6)
        );
    }

    atmosphere
    {
        type patch;
        faces
        (
            (4 5 11 10)
        );
    }
);

mergePatchPairs
(
);

// ************************************************************************* //
